Uv/Vis Spectrum: Salicylic Acid
Formula: C7H6O3
CAS: 69-72-7
Melting point: 158
Boiling point: 211(20)
Instrument: Unicam SP 500
Origin: INSTITUTE OF ENERGY PROBLEMS OF CHEMICAL PHYSICS, RAS
Wavelength (nm)	Logarithm epsilon
247.105	3.14445
247.241	3.09994
247.312	3.08373
247.48	3.06265
247.638	3.04136
247.809	3.02173
247.985	3.00533
248.151	2.99012
248.326	2.97246
248.502	2.95497
248.667	2.9369
248.846	2.92034
249.023	2.90193
249.19	2.88396
249.369	2.86669
249.548	2.84852
249.718	2.83258
249.898	2.81455
250.079	2.79747
250.249	2.77949
250.43	2.76073
250.599	2.73939
250.78	2.71877
250.963	2.7012
251.134	2.6809
251.316	2.65934
251.498	2.63692
251.669	2.61562
251.853	2.59566
252.037	2.57474
252.21	2.55309
252.394	2.53277
252.579	2.51183
252.753	2.48983
252.937	2.46295
253.12	2.43429
253.297	2.41941
253.485	2.40777
253.663	2.39582
253.85	2.37903
254.039	2.36624
254.216	2.35306
254.404	2.33506
254.593	2.32544
254.77	2.30623
254.958	2.29106
255.148	2.2804
255.325	2.2643
255.514	2.25295
255.703	2.23576
255.983	2.22998
256.262	2.21177
256.631	2.19272
256.909	2.17285
257.189	2.15873
257.748	2.12994
258.029	2.12254
258.768	2.09002
259.712	2.07329
260.545	2.08058
261.492	2.08765
262.057	2.10352
262.43	2.11899
262.995	2.13289
263.459	2.15408
263.934	2.16779
264.308	2.18744
264.783	2.20016
264.976	2.21197
265.259	2.22412
265.633	2.23589
265.826	2.24677
266.2	2.26321
266.382	2.27408
266.666	2.28464
267.233	2.30914
267.71	2.32846
267.993	2.33778
268.276	2.34637
268.56	2.35532
268.935	2.37227
269.128	2.38075
269.411	2.38902
269.697	2.40476
269.98	2.4126
270.263	2.41984
270.445	2.42745
271.776	2.47966
271.97	2.48629
272.629	2.5082
272.914	2.52057
273.096	2.52626
273.29	2.53503
273.484	2.54088
273.667	2.54936
273.952	2.56031
274.237	2.5713
274.431	2.57922
274.625	2.58699
274.807	2.59188
275.002	2.59943
275.379	2.61444
275.573	2.62161
275.756	2.62867
275.95	2.63562
276.144	2.64245
276.327	2.64918
276.613	2.66
276.898	2.66876
277.185	2.68136
277.38	2.68752
277.575	2.69553
277.757	2.69958
277.952	2.70737
278.147	2.71525
278.331	2.72277
278.525	2.72837
278.72	2.73566
278.904	2.74306
279.19	2.75179
279.385	2.75892
279.569	2.76572
279.763	2.7708
279.959	2.77921
280.143	2.78571
280.339	2.7923
280.534	2.7986
280.718	2.80651
280.913	2.81113
281.107	2.8157
281.291	2.82312
281.487	2.82918
281.683	2.83637
281.867	2.84224
282.063	2.84939
282.247	2.85493
282.442	2.86039
282.637	2.86594
282.822	2.87256
283.018	2.87923
283.212	2.88314
283.397	2.88966
283.592	2.89471
283.788	2.90105
283.973	2.9073
284.168	2.91215
284.364	2.91824
284.549	2.92411
284.744	2.92891
284.94	2.93464
285.124	2.93933
285.32	2.94492
285.609	2.95391
285.794	2.95946
285.99	2.96493
286.186	2.9702
286.473	2.97654
286.658	2.9818
286.855	2.98799
287.051	2.99311
287.236	2.99818
287.433	3.00414
287.628	3.00896
287.813	3.01384
288.01	3.01959
288.206	3.02436
288.392	3.02997
288.588	3.03451
288.773	3.03912
288.969	3.04368
289.165	3.04819
289.35	3.05255
289.545	3.05613
289.741	3.06041
289.926	3.06475
290.121	3.06813
290.317	3.07239
290.502	3.07662
290.697	3.0799
290.893	3.08406
291.077	3.08729
291.272	3.09059
291.468	3.09455
291.652	3.0978
291.939	3.10253
292.226	3.10722
292.421	3.11028
292.605	3.11342
292.8	3.11644
292.995	3.11944
293.178	3.12169
293.374	3.12474
293.569	3.12769
293.752	3.13061
293.947	3.13281
294.141	3.135
294.325	3.13796
294.52	3.14081
294.714	3.14296
295	3.14655
295.183	3.14867
295.377	3.15077
295.56	3.15287
295.754	3.15496
295.949	3.15704
296.132	3.15977
296.326	3.16117
296.521	3.16388
296.703	3.16526
296.897	3.16729
297.091	3.16931
297.274	3.17132
297.469	3.17404
297.663	3.17531
297.846	3.1773
298.129	3.17863
298.323	3.1806
298.506	3.18256
298.791	3.18513
299.551	3.18897
300.027	3.19157
300.311	3.19278
300.775	3.19467
301.341	3.19654
302.277	3.19777
302.557	3.19646
302.938	3.19521
303.395	3.19257
303.675	3.19132
303.955	3.19061
304.423	3.18739
304.703	3.18605
304.982	3.18407
305.159	3.18209
305.437	3.17946
305.714	3.17674
306.181	3.1727
306.371	3.17139
306.548	3.16927
306.738	3.16796
307.38	3.16036
307.657	3.15684
307.846	3.15473
308.023	3.15262
308.211	3.15049
308.399	3.14767
308.576	3.14551
308.765	3.14335
309.406	3.1338
309.593	3.13087
309.782	3.12863
309.958	3.12567
310.234	3.12113
310.421	3.11802
310.609	3.11498
310.786	3.11192
310.972	3.108
311.149	3.10479
311.335	3.1009
311.523	3.09764
311.698	3.09368
311.886	3.09037
312.072	3.08546
312.248	3.08218
312.524	3.07716
312.794	3.06698
312.981	3.06263
313.167	3.05823
313.342	3.05294
313.442	3.05208
313.529	3.04941
313.715	3.04401
313.89	3.03941
314.076	3.03389
314.252	3.02919
314.438	3.02455
314.624	3.01883
314.798	3.01198
315.066	2.99821
315.251	2.99103
315.436	2.98485
315.609	2.97643
315.795	2.97003
315.981	2.96354
316.154	2.95589
316.34	2.94918
316.524	2.94114
316.698	2.93308
316.885	2.92714
317.058	2.91881
317.243	2.91033
317.429	2.90287
317.604	2.8965
317.79	2.8888
317.976	2.88096
318.151	2.87426
318.337	2.86615
318.523	2.85789
318.697	2.84947
318.884	2.84226
319.07	2.83493
319.245	2.82605
319.432	2.81862
319.618	2.81087
319.793	2.80148
319.978	2.79187
320.154	2.78363
320.341	2.77544
320.528	2.76851
320.703	2.75814
320.889	2.74923
321.165	2.73836
321.352	2.72925
321.626	2.71395
321.801	2.70407
322.175	2.68585
322.352	2.67757
322.538	2.66682
322.725	2.65579
322.901	2.64476
323.088	2.63537
323.265	2.62607
323.451	2.61395
323.726	2.59662
324.002	2.5811
324.189	2.56763
324.553	2.54522
324.74	2.53374
325.016	2.51574
325.192	2.50345
325.468	2.48413
325.745	2.46719
325.932	2.45299
326.121	2.44223
326.387	2.42399
326.663	2.40448
326.94	2.38405
327.217	2.36313
327.493	2.34061
327.682	2.32661
327.96	2.30741
328.236	2.28171
328.703	2.24278
328.98	2.21937
329.158	2.20078
329.437	2.18756
329.714	2.1542
329.903	2.13952
330.081	2.11708
330.269	2.0934
330.459	2.07648
330.828	2.05975
331.105	2.0132
331.296	2.0036
331.474	1.9827
331.942	1.92627
332.132	1.91451
332.501	1.87587
332.781	1.84744
333.149	1.802
333.518	1.75124
333.898	1.69373
340.066	1.25709
